Version 4
SHEET 1 880 680
WIRE 256 0 80 0
WIRE 256 112 256 80
WIRE 80 128 80 0
WIRE 80 224 80 208
WIRE 256 224 256 192
WIRE 256 224 80 224
WIRE 80 240 80 224
FLAG 80 240 0
SYMBOL voltage 80 112 R0
WINDOW 123 0 0 Left 2
WINDOW 39 0 0 Left 2
SYMATTR InstName V1
SYMATTR Value PULSE(0 8 0 1n 1n 0.07142 0.14285)
SYMBOL res 240 96 R0
SYMATTR InstName R1
SYMATTR Value 200
SYMBOL ind 240 -16 R0
SYMATTR InstName L1
SYMATTR Value 7.25mH
TEXT 128 288 Left 2 !.tran 1s startup
